Version 4
SHEET 1 1548 680
WIRE 0 -592 -96 -592
WIRE 224 -592 0 -592
WIRE 352 -592 224 -592
WIRE 1152 -592 352 -592
WIRE 1184 -592 1152 -592
WIRE 224 -480 224 -592
WIRE 1152 -480 1152 -592
WIRE 176 -464 64 -464
WIRE 352 -432 352 -512
WIRE 592 -432 352 -432
WIRE 672 -432 592 -432
WIRE 176 -416 144 -416
WIRE -96 -352 -96 -592
WIRE 848 -352 672 -352
WIRE 1152 -336 1152 -400
WIRE 1408 -336 1152 -336
WIRE 0 -320 0 -592
WIRE 672 -320 0 -320
WIRE 672 -304 672 -320
WIRE 1152 -288 1152 -336
WIRE -96 -272 -288 -272
WIRE 224 -256 224 -400
WIRE 416 -256 384 -256
WIRE 640 -256 416 -256
WIRE 848 -240 848 -352
WIRE 848 -240 704 -240
WIRE 1088 -240 848 -240
WIRE 144 -224 144 -416
WIRE 144 -224 -96 -224
WIRE 592 -224 592 -432
WIRE 640 -224 592 -224
WIRE 592 -160 592 -224
WIRE -288 -144 -288 -272
WIRE -96 -144 -288 -144
WIRE 64 -144 64 -464
WIRE 64 -144 -96 -144
WIRE 224 -96 224 -176
WIRE 224 -96 48 -96
WIRE 384 -96 384 -256
WIRE 384 -96 224 -96
WIRE 592 -96 592 -160
WIRE -96 112 -96 -144
WIRE 48 112 48 -16
WIRE 224 112 224 -32
WIRE 592 112 592 -16
WIRE 672 112 672 -176
WIRE 1152 112 1152 -192
FLAG 1408 -336 Output
IOPIN 1408 -336 Out
FLAG 416 -256 in
FLAG 592 -160 neg
FLAG -96 112 0
FLAG 48 112 0
FLAG 224 112 0
FLAG 592 112 0
FLAG 672 112 0
FLAG 1152 112 0
SYMBOL voltage -96 -368 R0
WINDOW 123 0 0 Left 0
WINDOW 39 0 0 Left 0
SYMATTR InstName V1
SYMATTR Value 3.3
SYMBOL voltage -96 -240 R0
WINDOW 123 0 0 Left 0
WINDOW 39 0 0 Left 0
SYMATTR InstName V2
SYMATTR Value PULSE(0 3.3 1s 0.02 0.02 4.0 99999 0)
SYMBOL res 32 -112 R0
SYMATTR InstName R1
SYMATTR Value 22.1K
SYMATTR SpiceLine tol=1 pwr=0.1
SYMBOL res 576 -112 R0
SYMATTR InstName R2
SYMATTR Value 22K
SYMBOL res 208 -272 R0
SYMATTR InstName R3
SYMATTR Value 15K
SYMATTR SpiceLine tol=1 pwr=0.1
SYMBOL res 336 -608 R0
SYMATTR InstName R4
SYMATTR Value 22.1K
SYMATTR SpiceLine tol=1 pwr=0.1
SYMBOL res 656 -448 R0
SYMATTR InstName R5
SYMATTR Value 221K
SYMATTR SpiceLine tol=1 pwr=0.1
SYMBOL AutoGenerated\\LM358 672 -240 R0
SYMATTR InstName U1
SYMBOL polcap 208 -96 R0
WINDOW 3 24 56 Left 2
SYMATTR InstName C1
SYMATTR Value 330µ
SYMATTR Description Capacitor
SYMATTR Type cap
SYMATTR SpiceLine V=2 Irms=5.27046 Rser=0.009 Lser=0 mfg="KEMET" pn="A700D337M002ATE009" type="Al electrolytic"
SYMBOL sw 224 -496 R0
SYMATTR InstName S1
SYMATTR Value MYSW
SYMBOL npn2 1088 -288 R0
SYMATTR InstName Q1
SYMBOL res 1136 -496 R0
SYMATTR InstName R6
SYMATTR Value 1K
SYMATTR SpiceLine tol=1 pwr=0.1
TEXT -290 136 Left 2 !.tran 0 8s 0 0.1ms
TEXT -888 -560 Left 2 !.model MYSW SW(Ron=1 Roff=1Meg Vt=.5 Vh=-.4)
